%chk=benz_1.chk
#p hf/gen SCF=TIGHT NOSYMM 
  
 This is Gaussian file created by HARLEM 
  
  0 1 
 H     0.929362915000000    -1.970376530000000    -0.389593887000000 
 C    -2.755236949000000    -0.880002027000000     0.216134841000000 
 C    -1.754779914000000     0.087552176000000     0.064726166000000 
 C    -0.428702844000000    -0.304870524000000    -0.153273890000000 
 C    -0.103082805000000    -1.664847428000000    -0.219865272000000 
 C    -1.103539839000000    -2.632401632000000    -0.068456598000000 
 C    -2.429616910000000    -2.239978932000000     0.149543459000000 
 H    -3.787682668000000    -0.574472926000000     0.385863456000000 
 H    -2.008298373000000     1.146391336000000     0.116572314000000 
 H    -0.850021380000000    -3.691240793000000    -0.120302745000000 
 H    -3.201398050000000    -2.986377889000000     0.266344437000000 
 H     0.343078296000000     0.441528434000000    -0.270074866000000 
  
-H 
S    2 1.00 
5.4471780000e+000 1.5628497869e-001 
8.2454724000e-001 9.0469087667e-001 
S    1 1.00 
1.8319158000e-001 1.0000000000e+000 
****
-C 
S    3 1.00 
1.7225600000e+002 6.1766907377e-002 
2.5910900000e+001 3.5879404285e-001 
5.5333500000e+000 7.0071308369e-001 
S    2 1.00 
3.6649800000e+000 -3.9589516212e-001 
7.7054500000e-001 1.2158343557e+000 
S    1 1.00 
1.9585700000e-001 1.0000000000e+000 
P    2 1.00 
3.6649800000e+000 2.3645994662e-001 
7.7054500000e-001 8.6061880572e-001 
P    1 1.00 
1.9585700000e-001 1.0000000000e+000 
****
  
  
