%chk=fe_bpy2_im2_1.chk 
#p hf/gen SCF=TIGHT NOSYMM 
  
 This is Gaussian file created by HARLEM 
  
  2 1 
 Fe     5.983000000000000     1.010000000000000   -17.581000000000000 
 N     5.096000000000000    -0.440000000000000   -16.433000000000000 
 C     4.357000000000000    -0.221000000000000   -15.313000000000001 
 C     3.774000000000000    -1.264000000000000   -14.608000000000001 
 C     3.966000000000000    -2.556000000000000   -15.074000000000000 
 C     4.712000000000000    -2.789000000000000   -16.204999999999998 
 C     5.288000000000000    -1.711000000000000   -16.896000000000001 
 C     6.111000000000000    -1.820000000000000   -18.126000000000001 
 C     6.431000000000000    -3.034000000000000   -18.759000000000000 
 C     7.209000000000000    -3.019000000000000   -19.895000000000000 
 C     7.668000000000000    -1.809000000000000   -20.402999999999999 
 C     7.330000000000000    -0.636000000000000   -19.753000000000000 
 N     6.565000000000000    -0.643000000000000   -18.635000000000002 
 N     4.198000000000000     1.207000000000000   -18.500000000000000 
 C     3.749000000000000     0.424000000000000   -19.504000000000001 
 C     2.525000000000000     0.613000000000000   -20.097000000000001 
 C     1.734000000000000     1.655000000000000   -19.632000000000001 
 C     2.187000000000000     2.458000000000000   -18.609999999999999 
 C     3.441000000000000     2.232000000000000   -18.029000000000000 
 C     4.047000000000000     3.015000000000000   -16.920000000000002 
 C     3.444000000000000     4.111000000000000   -16.297999999999998 
 C     4.073000000000000     4.781000000000000   -15.279999999999999 
 C     5.331000000000000     4.342000000000000   -14.875999999999999 
 C     5.920000000000000     3.246000000000000   -15.503000000000000 
 N     5.271000000000000     2.599000000000000   -16.518000000000001 
 N     7.824000000000000     0.943000000000000   -16.661000000000001 
 C     8.156000000000001     0.180000000000000   -15.583000000000000 
 C     9.429000000000000     0.198000000000000   -15.022000000000000 
 C    10.375999999999999     1.032000000000000   -15.600000000000000 
 C    10.055999999999999     1.807000000000000   -16.689000000000000 
 C     8.756000000000000     1.760000000000000   -17.228999999999999 
 C     8.279000000000000     2.535000000000000   -18.396999999999998 
 C     9.089000000000000     3.431000000000000   -19.116000000000000 
 C     8.555999999999999     4.106000000000000   -20.187999999999999 
 C     7.229000000000000     3.895000000000000   -20.545000000000002 
 C     6.462000000000000     3.004000000000000   -19.812000000000001 
 N     6.984000000000000     2.338000000000000   -18.753000000000000 
 C     0.412000000000000     1.871000000000000   -20.263000000000002 
 H     3.602414077000000     5.630788953000000   -14.807974976000001 
 H     4.215284081000000     0.757895902000000   -14.960609009000001 
 H     3.206350211000000    -1.063542024000000   -13.747714979000000 
 H     3.539784618000000    -3.367561695000000   -14.561937442000000 
 H     4.849776737000000    -3.771103659000000   -16.549949231999999 
 H     6.077387852000000    -3.940729080000000   -18.364917744000000 
 H     7.454195704000000    -3.919923848000000   -20.375328311000001 
 H     8.262418599000000    -1.794605816000000   -21.268424368000002 
 H     7.667677418000000     0.286181729000000   -20.124557289999998 
 H     4.342909800000000    -0.365333041000000   -19.859983847999999 
 H     2.215231317000000    -0.020277714000000   -20.875140540000000 
 H     1.590860410000000     3.248105925000000   -18.259500047000000 
 H     2.494290382000000     4.433830144000000   -16.608374514000001 
 H     5.835270129000000     4.836821902000000   -14.099235607000001 
 H     6.867376032000000     2.912531608000000   -15.196768901000000 
 H     7.439534153000000    -0.450733972000000   -15.145562751000000 
 H     9.644932669999999    -0.405912921000000   -14.190638306000000 
 H    11.348116629000000     1.075283010000000   -15.205518262000000 
 H    10.780615800000000     2.434008459000000   -17.118292831000002 
 H    10.089091621000000     3.578351739000000   -18.832091184999999 
 H     9.150499751000000     4.777813526000000   -20.733652483000000 
 H     6.817373271000000     4.408641141000000   -21.363068588000001 
 H     5.459189053000000     2.835585901000000   -20.073738219999999 
 H    -0.352729126000000     1.889138597000000   -19.500595675000000 
 H     0.208549054000000     1.069097702000000   -20.957233689999999 
 H     0.414569923000000     2.812533589000000   -20.792063225000000 
  
-FE 
S    6 1.00 
3.2802438000e+000 3.7750601435e-003 
1.0554694000e+000 -5.5859652124e-002 
4.5096580000e-001 -3.1929461214e-001 
2.2488050000e-001 -2.7647801051e-002 
1.2138060000e-001 9.0491993440e-001 
6.7494700000e-002 3.4062581295e-001 
P    6 1.00 
3.2802438000e+000 -7.0520809540e-003 
1.0554694000e+000 -5.2595057115e-002 
4.5096580000e-001 -3.7734505105e-002 
2.2488050000e-001 3.8747735242e-001 
1.2138060000e-001 5.7916727835e-001 
6.7494700000e-002 1.2218171653e-001 
D    6 1.00 
3.8397757500e+001 6.6334299600e-003 
1.1056599200e+001 5.9581779641e-002 
4.3488373000e+000 2.4019495855e-001 
1.9875665000e+000 4.6481146720e-001 
9.8914430000e-001 3.4340922793e-001 
5.0798700000e-001 5.3890569675e-002 
****
-N 
S    6 1.00 
3.9198807900e+001 -1.3252789713e-002 
7.7584671000e+000 -4.6991708983e-002 
2.4113258000e+000 -3.3785369269e-002 
9.2772390000e-001 2.5024178458e-001 
4.0291110000e-001 5.9511723712e-001 
1.8468370000e-001 2.4070617479e-001 
P    6 1.00 
3.9198807900e+001 3.7596999959e-003 
7.7584671000e+000 3.7679369959e-002 
2.4113258000e+000 1.7389673981e-001 
9.2772390000e-001 4.1803642954e-001 
4.0291110000e-001 4.2585954954e-001 
1.8468370000e-001 1.0170829989e-001 
****
-C 
S    6 1.00 
3.0497239500e+001 -1.3252789668e-002 
6.0361996000e+000 -4.6991708823e-002 
1.8760463000e+000 -3.3785369154e-002 
7.2178260000e-001 2.5024178373e-001 
3.1347070000e-001 5.9511723510e-001 
1.4368660000e-001 2.4070617397e-001 
P    6 1.00 
3.0497239500e+001 3.7596999398e-003 
6.0361996000e+000 3.7679369397e-002 
1.8760463000e+000 1.7389673722e-001 
7.2178260000e-001 4.1803642331e-001 
3.1347070000e-001 4.2585954318e-001 
1.4368660000e-001 1.0170829837e-001 
****
-H 
S    6 1.00 
3.5523221200e+001 9.1636002644e-003 
6.5131437000e+000 4.9361491424e-002 
1.8221429000e+000 1.6853830486e-001 
6.2595530000e-001 3.7056281069e-001 
2.4307670000e-001 4.1649154202e-001 
1.0011240000e-001 1.3033408376e-001 
****
  
  
