%chk=FeHe6_1.chk 
#p INDO NOSYMM 
  
 This is Gaussian file created by HARLEM 
  
  0 1 
 Fe     0.000000000000000     0.000000000000000     0.000000000000000 
 He     0.000000000000000     1.500000000000000     0.000000000000000 
 He    -1.500000000000000     0.000000000000000     0.000000000000000 
 He     0.000000000000000    -1.500000000000000     0.000000000000000 
 He     1.500000000000000     0.000000000000000     0.000000000000000 
 He     0.000000000000000     0.000000000000000     1.500000000000000 
 He     0.000000000000000     0.000000000000000    -1.500000000000000 
  
  
  
