%chk=h2o_2.chk 
#p INDO NOSYMM 
  
 This is Gaussian file created by HARLEM 
  
  0 1 
 O     0.347621228000000    -0.050007626000000     0.087403757000000 
 H     0.146726957000000     0.545950846000000    -0.649777847000000 
 H    -0.494348185000000    -0.495943220000000     0.264012591000000 
  
  
  
