%chk=ru_fbp8_1.chk 
#p INDO NOSYMM 
  
 This is Gaussian file created by HARLEM 
  
  2 1 
 Ru     5.983000000000000     1.010000000000000   -17.581000000000000 
 N     5.096000000000000    -0.440000000000000   -16.433000000000000 
 C     4.357000000000000    -0.221000000000000   -15.313000000000001 
 C     3.774000000000000    -1.264000000000000   -14.608000000000001 
 C     3.966000000000000    -2.556000000000000   -15.074000000000000 
 C     4.712000000000000    -2.789000000000000   -16.204999999999998 
 C     5.288000000000000    -1.711000000000000   -16.896000000000001 
 C     6.111000000000000    -1.820000000000000   -18.126000000000001 
 C     6.431000000000000    -3.034000000000000   -18.759000000000000 
 C     7.209000000000000    -3.019000000000000   -19.895000000000000 
 C     7.668000000000000    -1.809000000000000   -20.402999999999999 
 C     7.330000000000000    -0.636000000000000   -19.753000000000000 
 N     6.565000000000000    -0.643000000000000   -18.635000000000002 
 N     4.198000000000000     1.207000000000000   -18.500000000000000 
 C     3.749000000000000     0.424000000000000   -19.504000000000001 
 C     2.525000000000000     0.613000000000000   -20.097000000000001 
 C     1.734000000000000     1.655000000000000   -19.632000000000001 
 C     2.187000000000000     2.458000000000000   -18.609999999999999 
 C     3.441000000000000     2.232000000000000   -18.029000000000000 
 C     4.047000000000000     3.015000000000000   -16.920000000000002 
 C     3.444000000000000     4.111000000000000   -16.297999999999998 
 C     4.073000000000000     4.781000000000000   -15.279999999999999 
 C     5.331000000000000     4.342000000000000   -14.875999999999999 
 C     5.920000000000000     3.246000000000000   -15.503000000000000 
 N     5.271000000000000     2.599000000000000   -16.518000000000001 
 N     7.824000000000000     0.943000000000000   -16.661000000000001 
 C     8.156000000000001     0.180000000000000   -15.583000000000000 
 C     9.429000000000000     0.198000000000000   -15.022000000000000 
 C    10.375999999999999     1.032000000000000   -15.600000000000000 
 C    10.055999999999999     1.807000000000000   -16.689000000000000 
 C     8.756000000000000     1.760000000000000   -17.228999999999999 
 C     8.279000000000000     2.535000000000000   -18.396999999999998 
 C     9.089000000000000     3.431000000000000   -19.116000000000000 
 C     8.555999999999999     4.106000000000000   -20.187999999999999 
 C     7.229000000000000     3.895000000000000   -20.545000000000002 
 C     6.462000000000000     3.004000000000000   -19.812000000000001 
 N     6.984000000000000     2.338000000000000   -18.753000000000000 
 C     0.412000000000000     1.871000000000000   -20.263000000000002 
 C     3.419000000000000     5.962000000000000   -14.624000000000001 
 C     3.195000000000000     5.843000000000000   -13.154999999999999 
 C     3.917000000000000     6.652000000000000   -12.273999999999999 
 C     3.714000000000000     6.548000000000000   -10.895000000000000 
 C     2.771000000000000     5.617000000000000   -10.365000000000000 
 C     2.050000000000000     4.807000000000000   -11.287000000000001 
 C     2.266000000000000     4.922000000000000   -12.664000000000000 
 F     4.821000000000000     7.547000000000000   -12.765000000000001 
 F     4.445000000000000     7.361000000000000   -10.074999999999999 
 F     1.130000000000000     3.892000000000000   -10.849000000000000 
 F     1.561000000000000     4.133000000000000   -13.532000000000000 
 C     2.551000000000000     5.503000000000000    -8.981999999999999 
 C     2.159000000000000     6.635000000000000    -8.214000000000000 
 C     1.938000000000000     6.531000000000000    -6.844000000000000 
 C     2.105000000000000     5.310000000000000    -6.177000000000000 
 C     2.492000000000000     4.169000000000000    -6.912000000000000 
 C     2.720000000000000     4.260000000000000    -8.294000000000001 
 F     1.974000000000000     7.863000000000000    -8.792000000000000 
 F     1.560000000000000     7.648000000000000    -6.152000000000000 
 F     2.662000000000000     2.957000000000000    -6.297000000000000 
 F     3.097000000000000     3.123000000000000    -8.960000000000001 
 C     2.247000000000000     5.128000000000000    -2.622000000000000 
 C     2.854000000000000     5.090000000000000    -3.831000000000000 
 N     0.908000000000000     5.333000000000000    -2.873000000000000 
 C     0.711000000000000     5.416000000000000    -4.176000000000000 
 N     1.877000000000000     5.272000000000000    -4.781000000000000 
 H     4.215284081000000     0.757895902000000   -14.960609009000001 
 H     3.206350211000000    -1.063542024000000   -13.747714979000000 
 H     3.539784618000000    -3.367561695000000   -14.561937442000000 
 H     4.849776737000000    -3.771103659000000   -16.549949231999999 
 H     6.077387852000000    -3.940729080000000   -18.364917744000000 
 H     7.454195704000000    -3.919923848000000   -20.375328311000001 
 H     8.262418599000000    -1.794605816000000   -21.268424368000002 
 H     7.667677418000000     0.286181729000000   -20.124557289999998 
 H     4.342909800000000    -0.365333041000000   -19.859983847999999 
 H     2.215231317000000    -0.020277714000000   -20.875140540000000 
 H     1.590860410000000     3.248105925000000   -18.259500047000000 
 H     2.494290382000000     4.433830144000000   -16.608374514000001 
 H     5.835270129000000     4.836821902000000   -14.099235607000001 
 H     6.867376032000000     2.912531608000000   -15.196768901000000 
 H     7.439534153000000    -0.450733972000000   -15.145562751000000 
 H     9.644932669999999    -0.405912921000000   -14.190638306000000 
 H    11.348116629000000     1.075283010000000   -15.205518262000000 
 H    10.780615800000000     2.434008459000000   -17.118292831000002 
 H    10.089091621000000     3.578351739000000   -18.832091184999999 
 H     9.150499751000000     4.777813526000000   -20.733652483000000 
 H     6.817373271000000     4.408641141000000   -21.363068588000001 
 H     5.459189053000000     2.835585901000000   -20.073738219999999 
 H    -0.352729126000000     1.889138597000000   -19.500595675000000 
 H     0.208549054000000     1.069097702000000   -20.957233689999999 
 H     0.414569923000000     2.812533589000000   -20.792063225000000 
 H     2.447469524000000     6.127537192000000   -15.065730654999999 
 H     4.032800958000000     6.839146476000000   -14.766346212000000 
 H     2.813693082000000     5.009276014000000    -1.746064177000000 
 H     3.891576493000000     4.941403561000000    -3.893081557000000 
 H     0.228336607000000     5.398448132000000    -2.075332015000000 
 H    -0.256953154000000     5.572198178000000    -4.551724395000000 
  
  
  
