%chk=C6_1.chk
#p hf/gen SCF=TIGHT NOSYMM 
  
 This is Gaussian file created by HARLEM 
  
  0 1 
 H    -0.173206000000000     4.017166000000000     0.000000000000000 
 C     0.444560000000000     3.143515000000000     0.000000000000000 
 H     1.062324000000000     3.143515000000000    -0.873651000000000 
 H     1.062324000000000     3.143515000000000     0.873651000000000 
 C    -0.444560000000000     1.886109000000000     0.000000000000000 
 H    -1.062324000000000     1.886109000000000     0.873651000000000 
 H    -1.062324000000000     1.886109000000000    -0.873651000000000 
 C     0.444560000000000     0.628703000000000     0.000000000000000 
 H     1.062324000000000     0.628703000000000    -0.873651000000000 
 H     1.062324000000000     0.628703000000000     0.873651000000000 
 C    -0.444560000000000    -0.628703000000000     0.000000000000000 
 H    -1.062324000000000    -0.628703000000000     0.873651000000000 
 H    -1.062324000000000    -0.628703000000000    -0.873651000000000 
 C     0.444560000000000    -1.886109000000000     0.000000000000000 
 H     1.062324000000000    -1.886109000000000    -0.873651000000000 
 H     1.062324000000000    -1.886109000000000     0.873651000000000 
 C    -0.444560000000000    -3.143515000000000     0.000000000000000 
 H    -1.062324000000000    -3.143515000000000     0.873651000000000 
 H    -1.062324000000000    -3.143515000000000    -0.873651000000000 
 H     0.173206000000000    -4.017166000000000     0.000000000000000 
  
-H 
S    2 1.00 
5.4471780000e+000 1.5628500000e-001 
8.2454724000e-001 9.0469100000e-001 
S    1 1.00 
1.8319158000e-001 1.0000000000e+000 
****
-C 
S    3 1.00 
1.7225600000e+002 6.1766900000e-002 
2.5910900000e+001 3.5879400000e-001 
5.5333500000e+000 7.0071300000e-001 
S    2 1.00 
3.6649800000e+000 -3.9589700000e-001 
7.7054500000e-001 1.2158400000e+000 
S    1 1.00 
1.9585700000e-001 1.0000000000e+000 
P    2 1.00 
3.6649800000e+000 2.3646000000e-001 
7.7054500000e-001 8.6061900000e-001 
P    1 1.00 
1.9585700000e-001 1.0000000000e+000 
****
  
  
