%chk=FEOH4.chk
#p INDO NOSYMM 
  
 This is Gaussian file created by HARLEM 
  
  0 1 
 Fe    -0.444560000000000    -0.628703000000000     0.000000000000000 
 O    -1.310584893000000    -0.628703000000000     1.224745233000000 
 H    -1.876975130000000    -1.392951458000000     1.118170226000000 
 H    -1.062324000000000    -0.628703000000000    -0.873651000000000 
 H     0.173206000000000    -1.502354000000000     0.000000000000000 
 H     0.178978146000000     0.253113410000000     0.000000000000000 
  
  
  
