%chk=h2o_1.chk
#p INDO NOSYMM 
  
 This is Gaussian file created by HARLEM 
  
  0 1 
 O     0.000000000000000     0.000000000000000     0.397815000000000 
 H     0.000000000000000     0.763468000000000    -0.198908000000000 
 H     0.000000000000000    -0.763468000000000    -0.198908000000000 
  
  
  
