%chk=h2o_1.chk
#p hf/gen SCF=TIGHT NOSYMM 
  
 This is Gaussian file created by HARLEM 
  
  0 1 
 O     0.000000000000000     0.000000000000000     0.000000000000000 
 H     0.000000000000000     0.000000000000000     0.960000000000000 
 H     0.905000000000000     0.000000000000000    -0.320000000000000 
  
-O 
S    3 1.00 
3.2203700000e+002 5.9239393389e-002 
4.8430800000e+001 3.5149996078e-001 
1.0420600000e+001 7.0765792103e-001 
S    2 1.00 
7.4029400000e+000 -4.0445358319e-001 
1.5762000000e+000 1.2215617614e+000 
S    1 1.00 
3.7368400000e-001 1.0000000000e+000 
P    2 1.00 
7.4029400000e+000 2.4458610697e-001 
1.5762000000e+000 8.5395537347e-001 
P    1 1.00 
3.7368400000e-001 1.0000000000e+000 
****
-H 
S    2 1.00 
5.4471780000e+000 1.5628497869e-001 
8.2454724000e-001 9.0469087667e-001 
S    1 1.00 
1.8319158000e-001 1.0000000000e+000 
****
  
  
